*SPEF "ieee 1481-1999"
*DESIGN "user_proj_timer"
*DATE "11:11:11 Fri 11 11, 1111"
*VENDOR "OpenRCX"
*PROGRAM "Parallel Extraction"
*VERSION "1.0"
*DESIGN_FLOW "NAME_SCOPE LOCAL" "PIN_CAP NONE"
*DIVIDER /
*DELIMITER :
*BUS_DELIMITER []
*T_UNIT 1 NS
*C_UNIT 1 PF
*R_UNIT 1 OHM
*L_UNIT 1 HENRY

*NAME_MAP
*1 io_in[0]
*2 io_in[10]
*3 io_in[1]
*4 io_in[2]
*5 io_in[3]
*6 io_in[4]
*7 io_in[5]
*8 io_in[6]
*9 io_in[7]
*10 io_in[8]
*11 io_in[9]
*12 net22
*13 net32
*14 net23
*15 net24
*16 net25
*17 net26
*18 net27
*19 net28
*20 net29
*21 net30
*22 net31
*23 io_out[0]
*24 io_out[10]
*25 io_out[1]
*26 io_out[2]
*27 io_out[3]
*28 io_out[4]
*29 io_out[5]
*30 io_out[6]
*31 io_out[7]
*32 io_out[8]
*33 io_out[9]
*36 wb_clk_i
*37 wb_rst_i
*38 _000_
*39 _001_
*40 _002_
*41 _003_
*42 _004_
*43 _005_
*44 _006_
*45 _007_
*46 _008_
*47 _009_
*48 _010_
*49 _011_
*50 _012_
*51 _013_
*52 _014_
*53 _015_
*54 _016_
*55 _017_
*56 _018_
*57 _019_
*58 _020_
*59 _021_
*60 _022_
*61 _023_
*62 _024_
*63 _025_
*64 _026_
*65 _027_
*66 _028_
*67 _029_
*68 _030_
*69 _031_
*70 _032_
*71 _033_
*72 _034_
*73 _035_
*74 _036_
*75 _037_
*76 _038_
*77 _039_
*78 _040_
*79 _041_
*80 _042_
*81 _043_
*82 _044_
*83 _045_
*84 _046_
*85 _047_
*86 _048_
*87 _049_
*88 _050_
*89 _051_
*90 _052_
*91 _053_
*92 _054_
*93 _055_
*94 _056_
*95 _057_
*96 _058_
*97 _059_
*98 _060_
*99 _061_
*100 _062_
*101 _063_
*102 _064_
*103 _065_
*104 _066_
*105 _067_
*106 _068_
*107 _069_
*108 _070_
*109 _071_
*110 _072_
*111 _073_
*112 _074_
*113 _075_
*114 _076_
*115 _077_
*116 _078_
*117 _079_
*118 _080_
*119 _081_
*120 _082_
*121 _083_
*122 _084_
*123 _085_
*124 _086_
*125 _087_
*126 _088_
*127 _089_
*128 _090_
*129 _091_
*130 _092_
*131 _093_
*132 _094_
*133 _095_
*134 _096_
*135 _097_
*136 _098_
*137 _099_
*138 _100_
*139 _101_
*140 _102_
*141 _103_
*142 _104_
*143 _105_
*144 _106_
*145 _107_
*146 _108_
*147 _109_
*148 _110_
*149 _111_
*150 _112_
*151 _113_
*152 _114_
*153 _115_
*154 _116_
*155 _117_
*156 _118_
*157 _119_
*158 _120_
*159 _121_
*160 _122_
*161 _123_
*162 _124_
*163 _125_
*164 _126_
*165 _127_
*166 _128_
*167 _129_
*168 _130_
*169 _131_
*170 _132_
*171 _133_
*172 _134_
*173 _135_
*174 _136_
*175 _137_
*176 _138_
*177 _139_
*178 _140_
*179 _141_
*180 _142_
*181 _143_
*182 _144_
*183 _145_
*184 _146_
*185 _147_
*186 _148_
*187 _149_
*188 _150_
*189 _151_
*190 _152_
*191 _153_
*192 _154_
*193 _155_
*194 _156_
*195 _157_
*196 _158_
*197 _159_
*198 _160_
*199 _161_
*200 _162_
*201 _163_
*202 _164_
*203 _165_
*204 _166_
*205 _167_
*206 _168_
*207 _169_
*208 _170_
*209 _171_
*210 _172_
*211 _173_
*212 _174_
*213 _175_
*214 _176_
*215 _177_
*216 _178_
*217 _179_
*218 _180_
*219 _181_
*220 _182_
*221 _183_
*222 _184_
*223 _185_
*224 _186_
*225 _187_
*226 _188_
*227 _189_
*228 _190_
*229 _191_
*230 _192_
*231 _193_
*232 _194_
*233 _195_
*234 _196_
*235 _197_
*236 _198_
*237 _199_
*238 _200_
*239 _201_
*240 _202_
*241 _203_
*242 _204_
*243 _205_
*244 _206_
*245 _207_
*246 _208_
*247 _209_
*248 _210_
*249 _211_
*250 _212_
*251 _213_
*252 _214_
*253 _215_
*254 _216_
*255 _217_
*256 _218_
*257 _219_
*258 _220_
*259 _221_
*260 _222_
*261 _223_
*262 _224_
*263 _225_
*264 _226_
*265 _227_
*266 _228_
*267 _229_
*268 _230_
*269 _231_
*270 _232_
*271 _233_
*272 _234_
*273 _235_
*274 _236_
*275 _237_
*276 _238_
*277 _239_
*278 _240_
*279 _241_
*280 _242_
*281 _243_
*282 _244_
*283 _245_
*284 _246_
*285 _247_
*286 _248_
*287 _249_
*288 _250_
*289 _251_
*290 _252_
*291 _253_
*292 _254_
*293 _255_
*294 _256_
*295 _257_
*296 _258_
*297 _259_
*298 _260_
*299 _261_
*300 _262_
*301 _263_
*302 _264_
*303 _265_
*304 _266_
*305 _267_
*306 _268_
*307 _269_
*308 _270_
*309 _271_
*310 _272_
*311 _273_
*312 _274_
*313 _275_
*314 _276_
*315 _277_
*316 _278_
*317 _279_
*318 _280_
*319 _281_
*320 _282_
*321 _283_
*322 _284_
*323 _285_
*324 _286_
*325 _287_
*326 _288_
*327 _289_
*328 _290_
*329 _291_
*330 _292_
*331 _293_
*332 _294_
*333 _295_
*334 _296_
*335 _297_
*336 _298_
*337 _299_
*338 _300_
*339 _301_
*340 _302_
*341 _303_
*342 _304_
*343 _305_
*344 _306_
*345 _307_
*346 _308_
*347 _309_
*348 _310_
*349 _311_
*350 _312_
*351 _313_
*352 _314_
*353 _315_
*354 _316_
*355 _317_
*356 _318_
*357 _319_
*358 _320_
*359 _321_
*360 _322_
*361 _323_
*362 _324_
*363 _325_
*364 _326_
*365 _327_
*366 _328_
*367 _329_
*368 _330_
*369 clknet_0_wb_clk_i
*370 clknet_3_0__leaf_wb_clk_i
*371 clknet_3_1__leaf_wb_clk_i
*372 clknet_3_2__leaf_wb_clk_i
*373 clknet_3_3__leaf_wb_clk_i
*374 clknet_3_4__leaf_wb_clk_i
*375 clknet_3_5__leaf_wb_clk_i
*376 clknet_3_6__leaf_wb_clk_i
*377 clknet_3_7__leaf_wb_clk_i
*378 net1
*379 net10
*380 net100
*381 net101
*382 net102
*383 net103
*384 net104
*385 net105
*386 net106
*387 net107
*388 net108
*389 net109
*390 net11
*391 net110
*392 net111
*393 net112
*394 net113
*395 net114
*396 net115
*397 net116
*398 net117
*399 net118
*400 net119
*401 net12
*402 net120
*403 net121
*404 net122
*405 net123
*406 net124
*407 net125
*408 net126
*409 net127
*410 net128
*411 net129
*412 net13
*413 net130
*414 net131
*415 net132
*416 net133
*417 net134
*418 net135
*419 net136
*420 net137
*421 net138
*422 net139
*423 net14
*424 net140
*425 net141
*426 net142
*427 net143
*428 net144
*429 net145
*430 net146
*431 net147
*432 net148
*433 net149
*434 net15
*435 net150
*436 net151
*437 net152
*438 net153
*439 net154
*440 net155
*441 net156
*442 net157
*443 net158
*444 net159
*445 net16
*446 net160
*447 net161
*448 net162
*449 net163
*450 net164
*451 net165
*452 net166
*453 net167
*454 net168
*455 net169
*456 net17
*457 net170
*458 net171
*459 net172
*460 net173
*461 net174
*462 net175
*463 net176
*464 net177
*465 net178
*466 net179
*467 net18
*468 net180
*469 net181
*470 net182
*471 net183
*472 net184
*473 net185
*474 net186
*475 net187
*476 net188
*477 net189
*478 net19
*479 net190
*480 net191
*481 net192
*482 net193
*483 net194
*484 net195
*485 net196
*486 net197
*487 net198
*488 net199
*489 net2
*490 net20
*491 net200
*492 net201
*493 net202
*494 net203
*495 net204
*496 net205
*497 net206
*498 net207
*499 net208
*500 net209
*501 net21
*502 net210
*503 net211
*504 net212
*505 net213
*506 net214
*507 net215
*508 net216
*509 net217
*510 net218
*511 net3
*512 net33
*513 net34
*514 net35
*515 net36
*516 net37
*517 net38
*518 net39
*519 net4
*520 net40
*521 net41
*522 net42
*523 net43
*524 net44
*525 net45
*526 net46
*527 net47
*528 net48
*529 net49
*530 net5
*531 net50
*532 net51
*533 net52
*534 net53
*535 net54
*536 net55
*537 net56
*538 net57
*539 net58
*540 net59
*541 net6
*542 net60
*543 net61
*544 net62
*545 net63
*546 net64
*547 net65
*548 net66
*549 net67
*550 net68
*551 net69
*552 net7
*553 net70
*554 net71
*555 net72
*556 net73
*557 net74
*558 net75
*559 net76
*560 net77
*561 net78
*562 net79
*563 net8
*564 net80
*565 net81
*566 net82
*567 net83
*568 net84
*569 net85
*570 net86
*571 net87
*572 net88
*573 net89
*574 net9
*575 net90
*576 net91
*577 net92
*578 net93
*579 net94
*580 net95
*581 net96
*582 net97
*583 net98
*584 net99
*585 timer\.dig_cnt\[0\]
*586 timer\.dig_cnt\[1\]
*587 timer\.min_ones\[0\]
*588 timer\.min_ones\[1\]
*589 timer\.min_ones\[2\]
*590 timer\.min_ones\[3\]
*591 timer\.min_tens\[0\]
*592 timer\.min_tens\[1\]
*593 timer\.min_tens\[2\]
*594 timer\.min_tens\[3\]
*595 timer\.scan
*596 timer\.scan_div\[0\]
*597 timer\.scan_div\[10\]
*598 timer\.scan_div\[11\]
*599 timer\.scan_div\[12\]
*600 timer\.scan_div\[13\]
*601 timer\.scan_div\[14\]
*602 timer\.scan_div\[15\]
*603 timer\.scan_div\[16\]
*604 timer\.scan_div\[17\]
*605 timer\.scan_div\[18\]
*606 timer\.scan_div\[19\]
*607 timer\.scan_div\[1\]
*608 timer\.scan_div\[20\]
*609 timer\.scan_div\[21\]
*610 timer\.scan_div\[22\]
*611 timer\.scan_div\[23\]
*612 timer\.scan_div\[24\]
*613 timer\.scan_div\[25\]
*614 timer\.scan_div\[26\]
*615 timer\.scan_div\[27\]
*616 timer\.scan_div\[28\]
*617 timer\.scan_div\[29\]
*618 timer\.scan_div\[2\]
*619 timer\.scan_div\[30\]
*620 timer\.scan_div\[31\]
*621 timer\.scan_div\[3\]
*622 timer\.scan_div\[4\]
*623 timer\.scan_div\[5\]
*624 timer\.scan_div\[6\]
*625 timer\.scan_div\[7\]
*626 timer\.scan_div\[8\]
*627 timer\.scan_div\[9\]
*628 timer\.sec
*629 timer\.sec_div\[0\]
*630 timer\.sec_div\[10\]
*631 timer\.sec_div\[11\]
*632 timer\.sec_div\[12\]
*633 timer\.sec_div\[13\]
*634 timer\.sec_div\[14\]
*635 timer\.sec_div\[15\]
*636 timer\.sec_div\[16\]
*637 timer\.sec_div\[17\]
*638 timer\.sec_div\[18\]
*639 timer\.sec_div\[19\]
*640 timer\.sec_div\[1\]
*641 timer\.sec_div\[20\]
*642 timer\.sec_div\[21\]
*643 timer\.sec_div\[22\]
*644 timer\.sec_div\[23\]
*645 timer\.sec_div\[24\]
*646 timer\.sec_div\[25\]
*647 timer\.sec_div\[26\]
*648 timer\.sec_div\[27\]
*649 timer\.sec_div\[28\]
*650 timer\.sec_div\[29\]
*651 timer\.sec_div\[2\]
*652 timer\.sec_div\[30\]
*653 timer\.sec_div\[31\]
*654 timer\.sec_div\[3\]
*655 timer\.sec_div\[4\]
*656 timer\.sec_div\[5\]
*657 timer\.sec_div\[6\]
*658 timer\.sec_div\[7\]
*659 timer\.sec_div\[8\]
*660 timer\.sec_div\[9\]
*661 timer\.sec_ones\[0\]
*662 timer\.sec_ones\[1\]
*663 timer\.sec_ones\[2\]
*664 timer\.sec_ones\[3\]
*665 timer\.sec_tens\[0\]
*666 timer\.sec_tens\[1\]
*667 timer\.sec_tens\[2\]
*668 timer\.sec_tens\[3\]
*669 ANTENNA_1
*670 ANTENNA__342__A2
*671 ANTENNA__567__A
*672 ANTENNA__567__B
*673 ANTENNA__568__A_N
*674 ANTENNA__568__B
*675 ANTENNA__569__A_N
*676 ANTENNA__569__B
*677 ANTENNA__593__A
*678 ANTENNA__594__A
*679 ANTENNA__595__A
*680 ANTENNA__596__A
*681 ANTENNA__598__A
*682 ANTENNA__614__A
*683 ANTENNA__615__A
*684 ANTENNA__616__A
*685 ANTENNA__617__A
*686 ANTENNA__618__A
*687 ANTENNA__619__A
*688 ANTENNA__620__A
*689 ANTENNA__621__A
*690 ANTENNA__622__A
*691 ANTENNA__623__A
*692 ANTENNA__624__A
*693 ANTENNA__656__A
*694 ANTENNA__672__A
*695 ANTENNA_clkbuf_3_0__f_wb_clk_i_A
*696 ANTENNA_clkbuf_3_1__f_wb_clk_i_A
*697 ANTENNA_clkbuf_3_2__f_wb_clk_i_A
*698 ANTENNA_clkbuf_3_3__f_wb_clk_i_A
*699 ANTENNA_clkbuf_3_4__f_wb_clk_i_A
*700 ANTENNA_clkbuf_3_5__f_wb_clk_i_A
*701 ANTENNA_clkbuf_3_6__f_wb_clk_i_A
*702 ANTENNA_clkbuf_3_7__f_wb_clk_i_A
*703 ANTENNA_fanout15_A
*704 ANTENNA_fanout16_A
*705 ANTENNA_fanout17_A
*706 ANTENNA_fanout18_A
*707 ANTENNA_fanout19_A
*708 ANTENNA_fanout20_A
*709 ANTENNA_fanout21_A
*710 ANTENNA_output11_A
*711 ANTENNA_output12_A
*712 ANTENNA_output2_A
*713 ANTENNA_output3_A
*714 ANTENNA_output6_A
*715 ANTENNA_output7_A
*716 ANTENNA_output8_A
*717 ANTENNA_output9_A
*718 FILLER_0_0_109
*719 FILLER_0_0_113
*720 FILLER_0_0_125
*721 FILLER_0_0_137
*722 FILLER_0_0_141
*723 FILLER_0_0_15
*724 FILLER_0_0_153
*725 FILLER_0_0_165
*726 FILLER_0_0_169
*727 FILLER_0_0_181
*728 FILLER_0_0_193
*729 FILLER_0_0_197
*730 FILLER_0_0_209
*731 FILLER_0_0_221
*732 FILLER_0_0_225
*733 FILLER_0_0_237
*734 FILLER_0_0_249
*735 FILLER_0_0_253
*736 FILLER_0_0_265
*737 FILLER_0_0_27
*738 FILLER_0_0_277
*739 FILLER_0_0_281
*740 FILLER_0_0_29
*741 FILLER_0_0_293
*742 FILLER_0_0_3
*743 FILLER_0_0_305
*744 FILLER_0_0_309
*745 FILLER_0_0_313
*746 FILLER_0_0_325
*747 FILLER_0_0_333
*748 FILLER_0_0_337
*749 FILLER_0_0_349
*750 FILLER_0_0_361
*751 FILLER_0_0_365
*752 FILLER_0_0_377
*753 FILLER_0_0_389
*754 FILLER_0_0_393
*755 FILLER_0_0_405
*756 FILLER_0_0_41
*757 FILLER_0_0_53
*758 FILLER_0_0_57
*759 FILLER_0_0_69
*760 FILLER_0_0_81
*761 FILLER_0_0_85
*762 FILLER_0_0_97
*763 FILLER_0_1000_109
*764 FILLER_0_1000_121
*765 FILLER_0_1000_133
*766 FILLER_0_1000_139
*767 FILLER_0_1000_141
*768 FILLER_0_1000_15
*769 FILLER_0_1000_153
*770 FILLER_0_1000_165
*771 FILLER_0_1000_177
*772 FILLER_0_1000_189
*773 FILLER_0_1000_195
*774 FILLER_0_1000_197
*775 FILLER_0_1000_209
*776 FILLER_0_1000_221
*777 FILLER_0_1000_233
*778 FILLER_0_1000_245
*779 FILLER_0_1000_251
*780 FILLER_0_1000_253
*781 FILLER_0_1000_265
*782 FILLER_0_1000_27
*783 FILLER_0_1000_277
*784 FILLER_0_1000_289
*785 FILLER_0_1000_29
*786 FILLER_0_1000_3
*787 FILLER_0_1000_301
*788 FILLER_0_1000_307
*789 FILLER_0_1000_309
*790 FILLER_0_1000_321
*791 FILLER_0_1000_333
*792 FILLER_0_1000_345
*793 FILLER_0_1000_357
*794 FILLER_0_1000_363
*795 FILLER_0_1000_365
*796 FILLER_0_1000_377
*797 FILLER_0_1000_389
*798 FILLER_0_1000_401
*799 FILLER_0_1000_41
*800 FILLER_0_1000_53
*801 FILLER_0_1000_65
*802 FILLER_0_1000_77
*803 FILLER_0_1000_83
*804 FILLER_0_1000_85
*805 FILLER_0_1000_97
*806 FILLER_0_1001_105
*807 FILLER_0_1001_111
*808 FILLER_0_1001_113
*809 FILLER_0_1001_125
*810 FILLER_0_1001_137
*811 FILLER_0_1001_149
*812 FILLER_0_1001_15
*813 FILLER_0_1001_161
*814 FILLER_0_1001_167
*815 FILLER_0_1001_169
*816 FILLER_0_1001_181
*817 FILLER_0_1001_193
*818 FILLER_0_1001_205
*819 FILLER_0_1001_217
*820 FILLER_0_1001_223
*821 FILLER_0_1001_225
*822 FILLER_0_1001_237
*823 FILLER_0_1001_249
*824 FILLER_0_1001_261
*825 FILLER_0_1001_27
*826 FILLER_0_1001_273
*827 FILLER_0_1001_279
*828 FILLER_0_1001_281
*829 FILLER_0_1001_293
*830 FILLER_0_1001_3
*831 FILLER_0_1001_305
*832 FILLER_0_1001_317
*833 FILLER_0_1001_329
*834 FILLER_0_1001_335
*835 FILLER_0_1001_337
*836 FILLER_0_1001_349
*837 FILLER_0_1001_361
*838 FILLER_0_1001_373
*839 FILLER_0_1001_385
*840 FILLER_0_1001_39
*841 FILLER_0_1001_391
*842 FILLER_0_1001_393
*843 FILLER_0_1001_405
*844 FILLER_0_1001_51
*845 FILLER_0_1001_55
*846 FILLER_0_1001_57
*847 FILLER_0_1001_69
*848 FILLER_0_1001_81
*849 FILLER_0_1001_93
*850 FILLER_0_1002_109
*851 FILLER_0_1002_121
*852 FILLER_0_1002_133
*853 FILLER_0_1002_139
*854 FILLER_0_1002_141
*855 FILLER_0_1002_15
*856 FILLER_0_1002_153
*857 FILLER_0_1002_165
*858 FILLER_0_1002_177
*859 FILLER_0_1002_189
*860 FILLER_0_1002_195
*861 FILLER_0_1002_197
*862 FILLER_0_1002_209
*863 FILLER_0_1002_221
*864 FILLER_0_1002_233
*865 FILLER_0_1002_245
*866 FILLER_0_1002_251
*867 FILLER_0_1002_253
*868 FILLER_0_1002_265
*869 FILLER_0_1002_27
*870 FILLER_0_1002_277
*871 FILLER_0_1002_289
*872 FILLER_0_1002_29
*873 FILLER_0_1002_3
*874 FILLER_0_1002_301
*875 FILLER_0_1002_307
*876 FILLER_0_1002_309
*877 FILLER_0_1002_321
*878 FILLER_0_1002_333
*879 FILLER_0_1002_345
*880 FILLER_0_1002_357
*881 FILLER_0_1002_363
*882 FILLER_0_1002_365
*883 FILLER_0_1002_377
*884 FILLER_0_1002_389
*885 FILLER_0_1002_401
*886 FILLER_0_1002_41
*887 FILLER_0_1002_53
*888 FILLER_0_1002_65
*889 FILLER_0_1002_77
*890 FILLER_0_1002_83
*891 FILLER_0_1002_85
*892 FILLER_0_1002_97
*893 FILLER_0_1003_105
*894 FILLER_0_1003_111
*895 FILLER_0_1003_113
*896 FILLER_0_1003_125
*897 FILLER_0_1003_137
*898 FILLER_0_1003_149
*899 FILLER_0_1003_15
*900 FILLER_0_1003_161
*901 FILLER_0_1003_167
*902 FILLER_0_1003_169
*903 FILLER_0_1003_181
*904 FILLER_0_1003_193
*905 FILLER_0_1003_205
*906 FILLER_0_1003_217
*907 FILLER_0_1003_223
*908 FILLER_0_1003_225
*909 FILLER_0_1003_237
*910 FILLER_0_1003_249
*911 FILLER_0_1003_261
*912 FILLER_0_1003_27
*913 FILLER_0_1003_273
*914 FILLER_0_1003_279
*915 FILLER_0_1003_281
*916 FILLER_0_1003_293
*917 FILLER_0_1003_3
*918 FILLER_0_1003_305
*919 FILLER_0_1003_317
*920 FILLER_0_1003_329
*921 FILLER_0_1003_335
*922 FILLER_0_1003_337
*923 FILLER_0_1003_349
*924 FILLER_0_1003_361
*925 FILLER_0_1003_373
*926 FILLER_0_1003_385
*927 FILLER_0_1003_39
*928 FILLER_0_1003_391
*929 FILLER_0_1003_393
*930 FILLER_0_1003_405
*931 FILLER_0_1003_51
*932 FILLER_0_1003_55
*933 FILLER_0_1003_57
*934 FILLER_0_1003_69
*935 FILLER_0_1003_81
*936 FILLER_0_1003_93
*937 FILLER_0_1004_109
*938 FILLER_0_1004_121
*939 FILLER_0_1004_133
*940 FILLER_0_1004_139
*941 FILLER_0_1004_141
*942 FILLER_0_1004_15
*943 FILLER_0_1004_153
*944 FILLER_0_1004_165
*945 FILLER_0_1004_177
*946 FILLER_0_1004_189
*947 FILLER_0_1004_195
*948 FILLER_0_1004_197
*949 FILLER_0_1004_209
*950 FILLER_0_1004_221
*951 FILLER_0_1004_233
*952 FILLER_0_1004_245
*953 FILLER_0_1004_251
*954 FILLER_0_1004_253
*955 FILLER_0_1004_265
*956 FILLER_0_1004_27
*957 FILLER_0_1004_277
*958 FILLER_0_1004_289
*959 FILLER_0_1004_29
*960 FILLER_0_1004_3
*961 FILLER_0_1004_301
*962 FILLER_0_1004_307
*963 FILLER_0_1004_309
*964 FILLER_0_1004_321
*965 FILLER_0_1004_333
*966 FILLER_0_1004_345
*967 FILLER_0_1004_357
*968 FILLER_0_1004_363
*969 FILLER_0_1004_365
*970 FILLER_0_1004_377
*971 FILLER_0_1004_389
*972 FILLER_0_1004_401
*973 FILLER_0_1004_41
*974 FILLER_0_1004_53
*975 FILLER_0_1004_65
*976 FILLER_0_1004_77
*977 FILLER_0_1004_83
*978 FILLER_0_1004_85
*979 FILLER_0_1004_97
*980 FILLER_0_1005_105
*981 FILLER_0_1005_111
*982 FILLER_0_1005_113
*983 FILLER_0_1005_125
*984 FILLER_0_1005_137
*985 FILLER_0_1005_149
*986 FILLER_0_1005_15
*987 FILLER_0_1005_161
*988 FILLER_0_1005_167
*989 FILLER_0_1005_169
*990 FILLER_0_1005_181
*991 FILLER_0_1005_193
*992 FILLER_0_1005_205
*993 FILLER_0_1005_217
*994 FILLER_0_1005_223
*995 FILLER_0_1005_225
*996 FILLER_0_1005_237
*997 FILLER_0_1005_249
*998 FILLER_0_1005_261
*999 FILLER_0_1005_27
*1000 FILLER_0_1005_273
*1001 FILLER_0_1005_279
*1002 FILLER_0_1005_281
*1003 FILLER_0_1005_293
*1004 FILLER_0_1005_3
*1005 FILLER_0_1005_305
*1006 FILLER_0_1005_317
*1007 FILLER_0_1005_329
*1008 FILLER_0_1005_335
*1009 FILLER_0_1005_337
*1010 FILLER_0_1005_349
*1011 FILLER_0_1005_361
*1012 FILLER_0_1005_373
*1013 FILLER_0_1005_385
*1014 FILLER_0_1005_39
*1015 FILLER_0_1005_391
*1016 FILLER_0_1005_393
*1017 FILLER_0_1005_405
*1018 FILLER_0_1005_51
*1019 FILLER_0_1005_55
*1020 FILLER_0_1005_57
*1021 FILLER_0_1005_69
*1022 FILLER_0_1005_81
*1023 FILLER_0_1005_93
*1024 FILLER_0_1006_109
*1025 FILLER_0_1006_121
*1026 FILLER_0_1006_133
*1027 FILLER_0_1006_139
*1028 FILLER_0_1006_141
*1029 FILLER_0_1006_15
*1030 FILLER_0_1006_153
*1031 FILLER_0_1006_165
*1032 FILLER_0_1006_177
*1033 FILLER_0_1006_189
*1034 FILLER_0_1006_195
*1035 FILLER_0_1006_197
*1036 FILLER_0_1006_209
*1037 FILLER_0_1006_221
*1038 FILLER_0_1006_233
*1039 FILLER_0_1006_245
*1040 FILLER_0_1006_251
*1041 FILLER_0_1006_253
*1042 FILLER_0_1006_265
*1043 FILLER_0_1006_27
*1044 FILLER_0_1006_277
*1045 FILLER_0_1006_289
*1046 FILLER_0_1006_29
*1047 FILLER_0_1006_3
*1048 FILLER_0_1006_301
*1049 FILLER_0_1006_307
*1050 FILLER_0_1006_309
*1051 FILLER_0_1006_321
*1052 FILLER_0_1006_333
*1053 FILLER_0_1006_345
*1054 FILLER_0_1006_357
*1055 FILLER_0_1006_363
*1056 FILLER_0_1006_365
*1057 FILLER_0_1006_377
*1058 FILLER_0_1006_389
*1059 FILLER_0_1006_401
*1060 FILLER_0_1006_41
*1061 FILLER_0_1006_53
*1062 FILLER_0_1006_65
*1063 FILLER_0_1006_77
*1064 FILLER_0_1006_83
*1065 FILLER_0_1006_85
*1066 FILLER_0_1006_97
*1067 FILLER_0_1007_105
*1068 FILLER_0_1007_111
*1069 FILLER_0_1007_113
*1070 FILLER_0_1007_125
*1071 FILLER_0_1007_137
*1072 FILLER_0_1007_149
*1073 FILLER_0_1007_15
*1074 FILLER_0_1007_161
*1075 FILLER_0_1007_167
*1076 FILLER_0_1007_169
*1077 FILLER_0_1007_181
*1078 FILLER_0_1007_193
*1079 FILLER_0_1007_205
*1080 FILLER_0_1007_217
*1081 FILLER_0_1007_223
*1082 FILLER_0_1007_225
*1083 FILLER_0_1007_237
*1084 FILLER_0_1007_249
*1085 FILLER_0_1007_261
*1086 FILLER_0_1007_27
*1087 FILLER_0_1007_273
*1088 FILLER_0_1007_279
*1089 FILLER_0_1007_281
*1090 FILLER_0_1007_293
*1091 FILLER_0_1007_3
*1092 FILLER_0_1007_305
*1093 FILLER_0_1007_317
*1094 FILLER_0_1007_329
*1095 FILLER_0_1007_335
*1096 FILLER_0_1007_337
*1097 FILLER_0_1007_349
*1098 FILLER_0_1007_361
*1099 FILLER_0_1007_373
*1100 FILLER_0_1007_385
*1101 FILLER_0_1007_39
*1102 FILLER_0_1007_391
*1103 FILLER_0_1007_393
*1104 FILLER_0_1007_405
*1105 FILLER_0_1007_51
*1106 FILLER_0_1007_55
*1107 FILLER_0_1007_57
*1108 FILLER_0_1007_69
*1109 FILLER_0_1007_81
*1110 FILLER_0_1007_93
*1111 FILLER_0_1008_109
*1112 FILLER_0_1008_121
*1113 FILLER_0_1008_133
*1114 FILLER_0_1008_139
*1115 FILLER_0_1008_141
*1116 FILLER_0_1008_15
*1117 FILLER_0_1008_153
*1118 FILLER_0_1008_165
*1119 FILLER_0_1008_177
*1120 FILLER_0_1008_189
*1121 FILLER_0_1008_195
*1122 FILLER_0_1008_197
*1123 FILLER_0_1008_209
*1124 FILLER_0_1008_221
*1125 FILLER_0_1008_233
*1126 FILLER_0_1008_245
*1127 FILLER_0_1008_251
*1128 FILLER_0_1008_253
*1129 FILLER_0_1008_265
*1130 FILLER_0_1008_27
*1131 FILLER_0_1008_277
*1132 FILLER_0_1008_289
*1133 FILLER_0_1008_29
*1134 FILLER_0_1008_3
*1135 FILLER_0_1008_301
*1136 FILLER_0_1008_307
*1137 FILLER_0_1008_309
*1138 FILLER_0_1008_321
*1139 FILLER_0_1008_333
*1140 FILLER_0_1008_345
*1141 FILLER_0_1008_357
*1142 FILLER_0_1008_363
*1143 FILLER_0_1008_365
*1144 FILLER_0_1008_377
*1145 FILLER_0_1008_389
*1146 FILLER_0_1008_401
*1147 FILLER_0_1008_41
*1148 FILLER_0_1008_53
*1149 FILLER_0_1008_65
*1150 FILLER_0_1008_77
*1151 FILLER_0_1008_83
*1152 FILLER_0_1008_85
*1153 FILLER_0_1008_97
*1154 FILLER_0_1009_105
*1155 FILLER_0_1009_111
*1156 FILLER_0_1009_113
*1157 FILLER_0_1009_125
*1158 FILLER_0_1009_137
*1159 FILLER_0_1009_149
*1160 FILLER_0_1009_161
*1161 FILLER_0_1009_167
*1162 FILLER_0_1009_169
*1163 FILLER_0_1009_18
*1164 FILLER_0_1009_181
*1165 FILLER_0_1009_193
*1166 FILLER_0_1009_205
*1167 FILLER_0_1009_217
*1168 FILLER_0_1009_223
*1169 FILLER_0_1009_225
*1170 FILLER_0_1009_237
*1171 FILLER_0_1009_249
*1172 FILLER_0_1009_261
*1173 FILLER_0_1009_273
*1174 FILLER_0_1009_279
*1175 FILLER_0_1009_281
*1176 FILLER_0_1009_293
*1177 FILLER_0_1009_30
*1178 FILLER_0_1009_305
*1179 FILLER_0_1009_317
*1180 FILLER_0_1009_329
*1181 FILLER_0_1009_335
*1182 FILLER_0_1009_337
*1183 FILLER_0_1009_349
*1184 FILLER_0_1009_361
*1185 FILLER_0_1009_373
*1186 FILLER_0_1009_385
*1187 FILLER_0_1009_391
*1188 FILLER_0_1009_393
*1189 FILLER_0_1009_405
*1190 FILLER_0_1009_42
*1191 FILLER_0_1009_54
*1192 FILLER_0_1009_57
*1193 FILLER_0_1009_6
*1194 FILLER_0_1009_69
*1195 FILLER_0_1009_81
*1196 FILLER_0_1009_93
*1197 FILLER_0_100_109
*1198 FILLER_0_100_121
*1199 FILLER_0_100_133
*1200 FILLER_0_100_139
*1201 FILLER_0_100_141
*1202 FILLER_0_100_15
*1203 FILLER_0_100_153
*1204 FILLER_0_100_165
*1205 FILLER_0_100_177
*1206 FILLER_0_100_189
*1207 FILLER_0_100_195
*1208 FILLER_0_100_197
*1209 FILLER_0_100_209
*1210 FILLER_0_100_221
*1211 FILLER_0_100_233
*1212 FILLER_0_100_245
*1213 FILLER_0_100_251
*1214 FILLER_0_100_253
*1215 FILLER_0_100_265
*1216 FILLER_0_100_27
*1217 FILLER_0_100_277
*1218 FILLER_0_100_289
*1219 FILLER_0_100_29
*1220 FILLER_0_100_3
*1221 FILLER_0_100_301
*1222 FILLER_0_100_307
*1223 FILLER_0_100_309
*1224 FILLER_0_100_321
*1225 FILLER_0_100_333
*1226 FILLER_0_100_345
*1227 FILLER_0_100_357
*1228 FILLER_0_100_363
*1229 FILLER_0_100_365
*1230 FILLER_0_100_377
*1231 FILLER_0_100_389
*1232 FILLER_0_100_401
*1233 FILLER_0_100_41
*1234 FILLER_0_100_53
*1235 FILLER_0_100_65
*1236 FILLER_0_100_77
*1237 FILLER_0_100_83
*1238 FILLER_0_100_85
*1239 FILLER_0_100_97
*1240 FILLER_0_1010_109
*1241 FILLER_0_1010_121
*1242 FILLER_0_1010_133
*1243 FILLER_0_1010_139
*1244 FILLER_0_1010_141
*1245 FILLER_0_1010_15
*1246 FILLER_0_1010_153
*1247 FILLER_0_1010_165
*1248 FILLER_0_1010_177
*1249 FILLER_0_1010_189
*1250 FILLER_0_1010_195
*1251 FILLER_0_1010_197
*1252 FILLER_0_1010_209
*1253 FILLER_0_1010_221
*1254 FILLER_0_1010_233
*1255 FILLER_0_1010_245
*1256 FILLER_0_1010_251
*1257 FILLER_0_1010_253
*1258 FILLER_0_1010_265
*1259 FILLER_0_1010_27
*1260 FILLER_0_1010_277
*1261 FILLER_0_1010_289
*1262 FILLER_0_1010_29
*1263 FILLER_0_1010_3
*1264 FILLER_0_1010_301
*1265 FILLER_0_1010_307
*1266 FILLER_0_1010_309
*1267 FILLER_0_1010_321
*1268 FILLER_0_1010_333
*1269 FILLER_0_1010_345
*1270 FILLER_0_1010_357
*1271 FILLER_0_1010_363
*1272 FILLER_0_1010_365
*1273 FILLER_0_1010_377
*1274 FILLER_0_1010_389
*1275 FILLER_0_1010_401
*1276 FILLER_0_1010_41
*1277 FILLER_0_1010_53
*1278 FILLER_0_1010_65
*1279 FILLER_0_1010_77
*1280 FILLER_0_1010_83
*1281 FILLER_0_1010_85
*1282 FILLER_0_1010_97
*1283 FILLER_0_1011_105
*1284 FILLER_0_1011_111
*1285 FILLER_0_1011_113
*1286 FILLER_0_1011_125
*1287 FILLER_0_1011_137
*1288 FILLER_0_1011_149
*1289 FILLER_0_1011_15
*1290 FILLER_0_1011_161
*1291 FILLER_0_1011_167
*1292 FILLER_0_1011_169
*1293 FILLER_0_1011_181
*1294 FILLER_0_1011_193
*1295 FILLER_0_1011_205
*1296 FILLER_0_1011_217
*1297 FILLER_0_1011_223
*1298 FILLER_0_1011_225
*1299 FILLER_0_1011_237
*1300 FILLER_0_1011_249
*1301 FILLER_0_1011_261
*1302 FILLER_0_1011_27
*1303 FILLER_0_1011_273
*1304 FILLER_0_1011_279
*1305 FILLER_0_1011_281
*1306 FILLER_0_1011_293
*1307 FILLER_0_1011_3
*1308 FILLER_0_1011_305
*1309 FILLER_0_1011_317
*1310 FILLER_0_1011_329
*1311 FILLER_0_1011_335
*1312 FILLER_0_1011_337
*1313 FILLER_0_1011_349
*1314 FILLER_0_1011_361
*1315 FILLER_0_1011_373
*1316 FILLER_0_1011_385
*1317 FILLER_0_1011_39
*1318 FILLER_0_1011_391
*1319 FILLER_0_1011_393
*1320 FILLER_0_1011_405
*1321 FILLER_0_1011_51
*1322 FILLER_0_1011_55
*1323 FILLER_0_1011_57
*1324 FILLER_0_1011_69
*1325 FILLER_0_1011_81
*1326 FILLER_0_1011_93
*1327 FILLER_0_1012_109
*1328 FILLER_0_1012_121
*1329 FILLER_0_1012_133
*1330 FILLER_0_1012_139
*1331 FILLER_0_1012_141
*1332 FILLER_0_1012_15
*1333 FILLER_0_1012_153
*1334 FILLER_0_1012_165
*1335 FILLER_0_1012_177
*1336 FILLER_0_1012_189
*1337 FILLER_0_1012_195
*1338 FILLER_0_1012_197
*1339 FILLER_0_1012_209
*1340 FILLER_0_1012_221
*1341 FILLER_0_1012_233
*1342 FILLER_0_1012_245
*1343 FILLER_0_1012_251
*1344 FILLER_0_1012_253
*1345 FILLER_0_1012_265
*1346 FILLER_0_1012_27
*1347 FILLER_0_1012_277
*1348 FILLER_0_1012_289
*1349 FILLER_0_1012_29
*1350 FILLER_0_1012_3
*1351 FILLER_0_1012_301
*1352 FILLER_0_1012_307
*1353 FILLER_0_1012_309
*1354 FILLER_0_1012_321
*1355 FILLER_0_1012_333
*1356 FILLER_0_1012_345
*1357 FILLER_0_1012_357
*1358 FILLER_0_1012_363
*1359 FILLER_0_1012_365
*1360 FILLER_0_1012_377
*1361 FILLER_0_1012_389
*1362 FILLER_0_1012_401
*1363 FILLER_0_1012_41
*1364 FILLER_0_1012_53
*1365 FILLER_0_1012_65
*1366 FILLER_0_1012_77
*1367 FILLER_0_1012_83
*1368 FILLER_0_1012_85
*1369 FILLER_0_1012_97
*1370 FILLER_0_1013_105
*1371 FILLER_0_1013_111
*1372 FILLER_0_1013_113
*1373 FILLER_0_1013_125
*1374 FILLER_0_1013_137
*1375 FILLER_0_1013_149
*1376 FILLER_0_1013_15
*1377 FILLER_0_1013_161
*1378 FILLER_0_1013_167
*1379 FILLER_0_1013_169
*1380 FILLER_0_1013_181
*1381 FILLER_0_1013_193
*1382 FILLER_0_1013_205
*1383 FILLER_0_1013_217
*1384 FILLER_0_1013_223
*1385 FILLER_0_1013_225
*1386 FILLER_0_1013_237
*1387 FILLER_0_1013_249
*1388 FILLER_0_1013_261
*1389 FILLER_0_1013_27
*1390 FILLER_0_1013_273
*1391 FILLER_0_1013_279
*1392 FILLER_0_1013_281
*1393 FILLER_0_1013_293
*1394 FILLER_0_1013_3
*1395 FILLER_0_1013_305
*1396 FILLER_0_1013_317
*1397 FILLER_0_1013_329
*1398 FILLER_0_1013_335
*1399 FILLER_0_1013_337
*1400 FILLER_0_1013_349
*1401 FILLER_0_1013_361
*1402 FILLER_0_1013_373
*1403 FILLER_0_1013_385
*1404 FILLER_0_1013_39
*1405 FILLER_0_1013_391
*1406 FILLER_0_1013_393
*1407 FILLER_0_1013_405
*1408 FILLER_0_1013_51
*1409 FILLER_0_1013_55
*1410 FILLER_0_1013_57
*1411 FILLER_0_1013_69
*1412 FILLER_0_1013_81
*1413 FILLER_0_1013_93
*1414 FILLER_0_1014_109
*1415 FILLER_0_1014_121
*1416 FILLER_0_1014_133
*1417 FILLER_0_1014_139
*1418 FILLER_0_1014_141
*1419 FILLER_0_1014_15
*1420 FILLER_0_1014_153
*1421 FILLER_0_1014_165
*1422 FILLER_0_1014_177
*1423 FILLER_0_1014_189
*1424 FILLER_0_1014_195
*1425 FILLER_0_1014_197
*1426 FILLER_0_1014_209
*1427 FILLER_0_1014_221
*1428 FILLER_0_1014_233
*1429 FILLER_0_1014_245
*1430 FILLER_0_1014_251
*1431 FILLER_0_1014_253
*1432 FILLER_0_1014_265
*1433 FILLER_0_1014_27
*1434 FILLER_0_1014_277
*1435 FILLER_0_1014_289
*1436 FILLER_0_1014_29
*1437 FILLER_0_1014_3
*1438 FILLER_0_1014_301
*1439 FILLER_0_1014_307
*1440 FILLER_0_1014_309
*1441 FILLER_0_1014_321
*1442 FILLER_0_1014_333
*1443 FILLER_0_1014_345
*1444 FILLER_0_1014_357
*1445 FILLER_0_1014_363
*1446 FILLER_0_1014_365
*1447 FILLER_0_1014_377
*1448 FILLER_0_1014_389
*1449 FILLER_0_1014_401
*1450 FILLER_0_1014_41
*1451 FILLER_0_1014_53
*1452 FILLER_0_1014_65
*1453 FILLER_0_1014_77
*1454 FILLER_0_1014_83
*1455 FILLER_0_1014_85
*1456 FILLER_0_1014_97
*1457 FILLER_0_1015_105
*1458 FILLER_0_1015_111
*1459 FILLER_0_1015_113
*1460 FILLER_0_1015_125
*1461 FILLER_0_1015_137
*1462 FILLER_0_1015_149
*1463 FILLER_0_1015_15
*1464 FILLER_0_1015_161
*1465 FILLER_0_1015_167
*1466 FILLER_0_1015_169
*1467 FILLER_0_1015_181
*1468 FILLER_0_1015_193
*1469 FILLER_0_1015_205
*1470 FILLER_0_1015_217
*1471 FILLER_0_1015_223
*1472 FILLER_0_1015_225
*1473 FILLER_0_1015_237
*1474 FILLER_0_1015_249
*1475 FILLER_0_1015_261
*1476 FILLER_0_1015_27
*1477 FILLER_0_1015_273
*1478 FILLER_0_1015_279
*1479 FILLER_0_1015_281
*1480 FILLER_0_1015_293
*1481 FILLER_0_1015_3
*1482 FILLER_0_1015_305
*1483 FILLER_0_1015_317
*1484 FILLER_0_1015_329
*1485 FILLER_0_1015_335
*1486 FILLER_0_1015_337
*1487 FILLER_0_1015_349
*1488 FILLER_0_1015_361
*1489 FILLER_0_1015_373
*1490 FILLER_0_1015_385
*1491 FILLER_0_1015_39
*1492 FILLER_0_1015_391
*1493 FILLER_0_1015_393
*1494 FILLER_0_1015_405
*1495 FILLER_0_1015_51
*1496 FILLER_0_1015_55
*1497 FILLER_0_1015_57
*1498 FILLER_0_1015_69
*1499 FILLER_0_1015_81
*1500 FILLER_0_1015_93
*1501 FILLER_0_1016_109
*1502 FILLER_0_1016_121
*1503 FILLER_0_1016_133
*1504 FILLER_0_1016_139
*1505 FILLER_0_1016_141
*1506 FILLER_0_1016_15
*1507 FILLER_0_1016_153
*1508 FILLER_0_1016_165
*1509 FILLER_0_1016_177
*1510 FILLER_0_1016_189
*1511 FILLER_0_1016_195
*1512 FILLER_0_1016_197
*1513 FILLER_0_1016_209
*1514 FILLER_0_1016_221
*1515 FILLER_0_1016_233
*1516 FILLER_0_1016_245
*1517 FILLER_0_1016_251
*1518 FILLER_0_1016_253
*1519 FILLER_0_1016_265
*1520 FILLER_0_1016_27
*1521 FILLER_0_1016_277
*1522 FILLER_0_1016_289
*1523 FILLER_0_1016_29
*1524 FILLER_0_1016_3
*1525 FILLER_0_1016_301
*1526 FILLER_0_1016_307
*1527 FILLER_0_1016_309
*1528 FILLER_0_1016_321
*1529 FILLER_0_1016_333
*1530 FILLER_0_1016_345
*1531 FILLER_0_1016_357
*1532 FILLER_0_1016_363
*1533 FILLER_0_1016_365
*1534 FILLER_0_1016_377
*1535 FILLER_0_1016_389
*1536 FILLER_0_1016_401
*1537 FILLER_0_1016_41
*1538 FILLER_0_1016_53
*1539 FILLER_0_1016_65
*1540 FILLER_0_1016_77
*1541 FILLER_0_1016_83
*1542 FILLER_0_1016_85
*1543 FILLER_0_1016_97
*1544 FILLER_0_1017_105
*1545 FILLER_0_1017_111
*1546 FILLER_0_1017_113
*1547 FILLER_0_1017_125
*1548 FILLER_0_1017_137
*1549 FILLER_0_1017_149
*1550 FILLER_0_1017_15
*1551 FILLER_0_1017_161
*1552 FILLER_0_1017_167
*1553 FILLER_0_1017_169
*1554 FILLER_0_1017_181
*1555 FILLER_0_1017_193
*1556 FILLER_0_1017_205
*1557 FILLER_0_1017_217
*1558 FILLER_0_1017_223
*1559 FILLER_0_1017_225
*1560 FILLER_0_1017_237
*1561 FILLER_0_1017_249
*1562 FILLER_0_1017_261
*1563 FILLER_0_1017_27
*1564 FILLER_0_1017_273